XFLR5 v6.09.01 beta

 Calculated polar for: Clark Y

 1 1 Reynolds number fixed          Mach number fixed         

 xtrf =   1.000 (top)        1.000 (bottom)
 Mach =   0.000     Re =     0.308 e 6     Ncrit =   0.000

  alpha     CL        CD       CDp       Cm    Top Xtr Bot Xtr   Cpmin    Chinge    XCp    
 ------- -------- --------- --------- -------- ------- ------- -------- --------- ---------
  -5.000  -0.1594   0.01610   0.00520  -0.0818  0.0097  0.0043  -2.8349   0.0000  -0.2791
  -4.500  -0.1070   0.01578   0.00475  -0.0812  0.0097  0.0043  -2.4713   0.0000  -0.5293
  -4.000  -0.0546   0.01551   0.00438  -0.0806  0.0097  0.0043  -2.1201   0.0000  -1.2602
  -3.500  -0.0028   0.01516   0.00391  -0.0799  0.0043  0.0011  -1.7861   0.0000  -29.1205
  -3.000   0.0497   0.01500   0.00366  -0.0792  0.0043  0.0011  -1.4979   0.0000   1.8701
  -2.500   0.1020   0.01489   0.00347  -0.0785  0.0043  0.0011  -1.2596   0.0000   1.0295
  -2.000   0.1543   0.01484   0.00334  -0.0778  0.0043  0.0011  -1.0286   0.0000   0.7591
  -1.500   0.2063   0.01480   0.00327  -0.0771  0.0043  0.0011  -0.8118   0.0000   0.6258
  -1.000   0.2578   0.01474   0.00313  -0.0762  0.0011  0.0000  -0.6615   0.0000   0.5463
  -0.500   0.3094   0.01479   0.00313  -0.0753  0.0011  0.0000  -0.6654   0.0000   0.4932
   0.000   0.3607   0.01487   0.00317  -0.0745  0.0011  0.0000  -0.7178   0.0000   0.4553
   0.500   0.4116   0.01499   0.00326  -0.0735  0.0011  0.0000  -0.7726   0.0000   0.4268
   1.000   0.4619   0.01512   0.00339  -0.0725  0.0000  0.0011  -0.8274   0.0000   0.4045
   1.500   0.5120   0.01531   0.00356  -0.0714  0.0000  0.0011  -0.8828   0.0000   0.3865
   2.000   0.5616   0.01552   0.00377  -0.0703  0.0000  0.0011  -0.9384   0.0000   0.3717
   2.500   0.6106   0.01577   0.00402  -0.0691  0.0000  0.0011  -0.9940   0.0000   0.3591
   3.000   0.6590   0.01605   0.00430  -0.0678  0.0000  0.0011  -1.0527   0.0000   0.3484
   3.500   0.7063   0.01638   0.00470  -0.0663  0.0011  0.0043  -1.1135   0.0000   0.3389
   4.000   0.7531   0.01673   0.00508  -0.0648  0.0011  0.0043  -1.1747   0.0000   0.3305
   4.500   0.7990   0.01712   0.00551  -0.0631  0.0011  0.0043  -1.2807   0.0000   0.3230
   5.000   0.8438   0.01755   0.00599  -0.0613  0.0011  0.0043  -1.4135   0.0000   0.3161
   5.500   0.8865   0.01807   0.00662  -0.0591  0.0043  0.0097  -1.5595   0.0000   0.3096
   6.000   0.9281   0.01861   0.00722  -0.0568  0.0043  0.0097  -1.7043   0.0000   0.3035
   6.500   0.9660   0.01916   0.00784  -0.0539  0.0043  0.0097  -1.8464   0.0000   0.2975
   7.000   1.0027   0.01980   0.00856  -0.0508  0.0043  0.0097  -1.9895   0.0000   0.2918
   7.500   1.0394   0.02054   0.00939  -0.0479  0.0043  0.0097  -2.1567   0.0000   0.2866
   8.000   1.0732   0.02150   0.01052  -0.0448  0.0097  0.0172  -2.3316   0.0000   0.2815
   8.500   1.1069   0.02246   0.01159  -0.0418  0.0097  0.0172  -2.5048   0.0000   0.2769
   9.000   1.1384   0.02355   0.01280  -0.0387  0.0097  0.0172  -2.6900   0.0000   0.2724
   9.500   1.1685   0.02478   0.01415  -0.0357  0.0097  0.0172  -2.8921   0.0000   0.2682
  10.000   1.1953   0.02622   0.01572  -0.0325  0.0097  0.0172  -3.1635   0.0000   0.2641
  10.500   1.2182   0.02803   0.01776  -0.0293  0.0172  0.0268  -3.4314   0.0000   0.2601
  11.000   1.2401   0.02997   0.01985  -0.0263  0.0172  0.0268  -3.7198   0.0000   0.2565
  11.500   1.2598   0.03218   0.02223  -0.0234  0.0172  0.0268  -4.0086   0.0000   0.2530
  12.000   1.2775   0.03469   0.02492  -0.0209  0.0172  0.0268  -4.2959   0.0000   0.2499
  12.500   1.2915   0.03768   0.02809  -0.0186  0.0172  0.0268  -4.5703   0.0000   0.2470
  13.000   1.3040   0.04089   0.03149  -0.0165  0.0172  0.0268  -4.8422   0.0000   0.2443
  13.500   1.3092   0.04506   0.03595  -0.0148  0.0268  0.0384  -5.0759   0.0000   0.2420
  14.000   1.3160   0.04933   0.04041  -0.0137  0.0268  0.0384  -5.3222   0.0000   0.2400
  14.500   1.3175   0.05450   0.04581  -0.0131  0.0268  0.0384  -5.5398   0.0000   0.2386
  15.000   1.3162   0.06030   0.05184  -0.0132  0.0268  0.0384  -5.7391   0.0000   0.2375
  15.500   1.3139   0.06634   0.05811  -0.0136  0.0268  0.0384  -5.9308   0.0000   0.2368
  16.000   1.3055   0.07372   0.06574  -0.0149  0.0268  0.0384  -6.0792   0.0000   0.2367
  16.500   1.3006   0.08073   0.07298  -0.0163  0.0268  0.0384  -6.2460   0.0000   0.2367
  17.000   1.2889   0.08916   0.08166  -0.0187  0.0268  0.0384  -6.3593   0.0000   0.2376
  17.500   1.2809   0.09695   0.08967  -0.0210  0.0268  0.0384  -6.5237   0.0000   0.2384
  18.000   1.2650   0.10639   0.09936  -0.0245  0.0268  0.0384  -6.6219   0.0000   0.2402
  18.500   1.2468   0.11637   0.10966  -0.0284  0.0384  0.0520  -6.6890   0.0000   0.2427
  19.000   1.2290   0.12661   0.12014  -0.0329  0.0384  0.0520  -6.7350   0.0000   0.2456
  19.500   1.2100   0.13740   0.13117  -0.0380  0.0384  0.0520  -6.7504   0.0000   0.2492
  20.000   1.1892   0.14888   0.14290  -0.0438  0.0384  0.0520  -6.7174   0.0000   0.2536


