XFLR5 v6.09.05 beta

 Calculated polar for: NACA 1412

 1 1 Reynolds number fixed          Mach number fixed         

 xtrf =   1.000 (top)        1.000 (bottom)
 Mach =   0.000     Re =     0.600 e 6     Ncrit =   0.000

  alpha     CL        CD       CDp       Cm    Top Xtr Bot Xtr   Cpmin    Chinge    XCp    
 ------- -------- --------- --------- -------- ------- ------- -------- --------- ---------
 -10.000  -0.9515   0.01976   0.01098  -0.0320  0.0269  0.0188  -5.8566   0.0000   0.2056
  -9.500  -0.9044   0.01885   0.00992  -0.0310  0.0269  0.0188  -5.4091   0.0000   0.2055
  -9.000  -0.8560   0.01802   0.00897  -0.0301  0.0269  0.0188  -4.9695   0.0000   0.2051
  -8.500  -0.8065   0.01728   0.00807  -0.0294  0.0188  0.0121  -4.5450   0.0000   0.2044
  -8.000  -0.7562   0.01661   0.00728  -0.0287  0.0188  0.0121  -4.1270   0.0000   0.2034
  -7.500  -0.7050   0.01600   0.00657  -0.0281  0.0188  0.0121  -3.7209   0.0000   0.2019
  -7.000  -0.6532   0.01544   0.00588  -0.0275  0.0121  0.0069  -3.3235   0.0000   0.2000
  -6.500  -0.6008   0.01496   0.00531  -0.0271  0.0121  0.0069  -2.9828   0.0000   0.1974
  -6.000  -0.5478   0.01452   0.00479  -0.0267  0.0121  0.0069  -2.6709   0.0000   0.1941
  -5.500  -0.4944   0.01414   0.00434  -0.0263  0.0121  0.0069  -2.3686   0.0000   0.1899
  -5.000  -0.4407   0.01379   0.00389  -0.0260  0.0069  0.0031  -2.0756   0.0000   0.1844
  -4.500  -0.3865   0.01349   0.00354  -0.0257  0.0069  0.0031  -1.7967   0.0000   0.1771
  -4.000  -0.3321   0.01324   0.00323  -0.0254  0.0069  0.0031  -1.5623   0.0000   0.1670
  -3.500  -0.2775   0.01300   0.00292  -0.0252  0.0031  0.0008  -1.3401   0.0000   0.1528
  -3.000  -0.2227   0.01282   0.00271  -0.0250  0.0031  0.0008  -1.1335   0.0000   0.1312
  -2.500  -0.1676   0.01268   0.00253  -0.0248  0.0031  0.0008  -0.9629   0.0000   0.0951
  -2.000  -0.1125   0.01257   0.00239  -0.0246  0.0031  0.0008  -0.8048   0.0000   0.0231
  -1.500  -0.0573   0.01248   0.00226  -0.0245  0.0008  0.0000  -0.6686   0.0000  -0.1879
  -1.000  -0.0020   0.01243   0.00219  -0.0243  0.0008  0.0000  -0.5534   0.0000  -12.0476
  -0.500   0.0533   0.01241   0.00216  -0.0242  0.0008  0.0000  -0.4567   0.0000   0.7055
   0.000   0.1086   0.01242   0.00216  -0.0240  0.0008  0.0000  -0.4714   0.0000   0.4699
   0.500   0.1638   0.01245   0.00220  -0.0238  0.0000  0.0008  -0.5260   0.0000   0.3932
   1.000   0.2189   0.01252   0.00226  -0.0237  0.0000  0.0008  -0.5879   0.0000   0.3551
   1.500   0.2739   0.01262   0.00237  -0.0235  0.0000  0.0008  -0.6606   0.0000   0.3323
   2.000   0.3287   0.01275   0.00253  -0.0233  0.0008  0.0031  -0.7493   0.0000   0.3169
   2.500   0.3834   0.01291   0.00270  -0.0230  0.0008  0.0031  -0.8587   0.0000   0.3059
   3.000   0.4378   0.01309   0.00291  -0.0228  0.0008  0.0031  -0.9914   0.0000   0.2975
   3.500   0.4920   0.01332   0.00316  -0.0225  0.0008  0.0031  -1.1457   0.0000   0.2908
   4.000   0.5457   0.01359   0.00349  -0.0221  0.0031  0.0069  -1.3206   0.0000   0.2853
   4.500   0.5991   0.01388   0.00383  -0.0217  0.0031  0.0069  -1.5286   0.0000   0.2807
   5.000   0.6521   0.01421   0.00420  -0.0213  0.0031  0.0069  -1.7428   0.0000   0.2767
   5.500   0.7046   0.01459   0.00463  -0.0208  0.0031  0.0069  -1.9914   0.0000   0.2731
   6.000   0.7564   0.01502   0.00515  -0.0202  0.0069  0.0121  -2.2667   0.0000   0.2698
   6.500   0.8077   0.01549   0.00568  -0.0195  0.0069  0.0121  -2.5468   0.0000   0.2668
   7.000   0.8582   0.01600   0.00627  -0.0188  0.0069  0.0121  -2.8358   0.0000   0.2640
   7.500   0.9078   0.01658   0.00696  -0.0179  0.0121  0.0188  -3.1689   0.0000   0.2613
   8.000   0.9565   0.01721   0.00768  -0.0169  0.0121  0.0188  -3.5309   0.0000   0.2588
   8.500   1.0040   0.01791   0.00846  -0.0158  0.0121  0.0188  -3.9016   0.0000   0.2562
   9.000   1.0503   0.01866   0.00932  -0.0145  0.0121  0.0188  -4.2806   0.0000   0.2537
   9.500   1.0949   0.01949   0.01029  -0.0130  0.0188  0.0269  -4.6642   0.0000   0.2512
  10.000   1.1377   0.02041   0.01132  -0.0113  0.0188  0.0269  -5.0554   0.0000   0.2486
  10.500   1.1781   0.02141   0.01246  -0.0094  0.0188  0.0269  -5.4491   0.0000   0.2458
  11.000   1.2157   0.02252   0.01369  -0.0071  0.0188  0.0269  -5.8409   0.0000   0.2430
  11.500   1.2470   0.02370   0.01504  -0.0038  0.0269  0.0364  -6.2161   0.0000   0.2395
  12.000   1.2744   0.02510   0.01659  -0.0003  0.0269  0.0364  -6.5791   0.0000   0.2359
  12.500   1.3002   0.02678   0.01843   0.0029  0.0269  0.0364  -6.9391   0.0000   0.2326
  13.000   1.3221   0.02879   0.02062   0.0059  0.0269  0.0364  -7.3310   0.0000   0.2296
  13.500   1.3401   0.03124   0.02325   0.0085  0.0269  0.0364  -7.7106   0.0000   0.2267
  14.000   1.3541   0.03426   0.02649   0.0106  0.0364  0.0472  -8.0696   0.0000   0.2243
  14.500   1.3639   0.03805   0.03050   0.0118  0.0364  0.0472  -8.3988   0.0000   0.2225
  15.000   1.3684   0.04280   0.03547   0.0121  0.0364  0.0472  -8.6877   0.0000   0.2213
  15.500   1.3672   0.04875   0.04165   0.0111  0.0364  0.0472  -8.9289   0.0000   0.2209
  16.000   1.3589   0.05610   0.04925   0.0090  0.0364  0.0472  -9.1047   0.0000   0.2213
  16.500   1.3419   0.06524   0.05865   0.0055  0.0364  0.0472  -9.1957   0.0000   0.2227
  17.000   1.3165   0.07628   0.06996   0.0006  0.0364  0.0472  -9.1935   0.0000   0.2251
  17.500   1.2804   0.08961   0.08358  -0.0056  0.0364  0.0472  -9.0684   0.0000   0.2288
  18.000   1.2363   0.10519   0.09945  -0.0132  0.0364  0.0472  -8.8238   0.0000   0.2341
  18.500   1.1815   0.12343   0.11799  -0.0223  0.0364  0.0472  -8.4113   0.0000   0.2414
  19.000   1.1201   0.14436   0.13922  -0.0332  0.0364  0.0472  -7.8276   0.0000   0.2515
  19.500   1.0513   0.16864   0.16381  -0.0461  0.0364  0.0472  -6.9954   0.0000   0.2654
  20.000   0.9619   0.20340   0.19888  -0.0643  0.0269  0.0364  -5.4605   0.0000   0.2892


