XFLR5 v6.09.05 beta

 Calculated polar for: NACA 4412

 1 1 Reynolds number fixed          Mach number fixed         

 xtrf =   1.000 (top)        1.000 (bottom)
 Mach =   0.000     Re =     1.000 e 6     Ncrit =   0.000

  alpha     CL        CD       CDp       Cm    Top Xtr Bot Xtr   Cpmin    Chinge    XCp    
 ------- -------- --------- --------- -------- ------- ------- -------- --------- ---------
 -10.000  -0.6551   0.01787   0.01026  -0.0989  0.0269  0.0188  -7.2824   0.0000   0.0863
  -9.500  -0.6039   0.01696   0.00918  -0.0986  0.0269  0.0188  -6.7460   0.0000   0.0742
  -9.000  -0.5519   0.01616   0.00822  -0.0984  0.0269  0.0188  -6.2201   0.0000   0.0594
  -8.500  -0.4990   0.01546   0.00736  -0.0982  0.0188  0.0121  -5.7096   0.0000   0.0410
  -8.000  -0.4456   0.01484   0.00661  -0.0980  0.0188  0.0121  -5.2089   0.0000   0.0177
  -7.500  -0.3917   0.01429   0.00594  -0.0978  0.0188  0.0121  -4.7233   0.0000  -0.0124
  -7.000  -0.3374   0.01381   0.00535  -0.0977  0.0188  0.0121  -4.2530   0.0000  -0.0527
  -6.500  -0.2827   0.01340   0.00482  -0.0976  0.0121  0.0069  -3.7992   0.0000  -0.1091
  -6.000  -0.2278   0.01304   0.00436  -0.0975  0.0121  0.0069  -3.3848   0.0000  -0.1933
  -5.500  -0.1726   0.01272   0.00396  -0.0974  0.0121  0.0069  -3.0293   0.0000  -0.3321
  -5.000  -0.1173   0.01246   0.00360  -0.0973  0.0069  0.0031  -2.6830   0.0000  -0.6028
  -4.500  -0.0618   0.01224   0.00331  -0.0973  0.0069  0.0031  -2.3568   0.0000  -1.3610
  -4.000  -0.0063   0.01206   0.00307  -0.0972  0.0069  0.0031  -2.0447   0.0000  -15.5511
  -3.500   0.0493   0.01191   0.00287  -0.0972  0.0069  0.0031  -1.7472   0.0000   2.2543
  -3.000   0.1049   0.01180   0.00269  -0.0971  0.0031  0.0008  -1.4677   0.0000   1.1884
  -2.500   0.1605   0.01172   0.00257  -0.0970  0.0031  0.0008  -1.2417   0.0000   0.8610
  -2.000   0.2161   0.01169   0.00249  -0.0969  0.0031  0.0008  -1.0269   0.0000   0.7022
  -1.500   0.2716   0.01167   0.00245  -0.0969  0.0031  0.0008  -0.8271   0.0000   0.6083
  -1.000   0.3269   0.01169   0.00243  -0.0968  0.0008  0.0000  -0.6702   0.0000   0.5463
  -0.500   0.3821   0.01174   0.00245  -0.0966  0.0008  0.0000  -0.7100   0.0000   0.5023
   0.000   0.4372   0.01182   0.00250  -0.0965  0.0008  0.0000  -0.7521   0.0000   0.4693
   0.500   0.4920   0.01192   0.00259  -0.0963  0.0000  0.0008  -0.7949   0.0000   0.4437
   1.000   0.5465   0.01205   0.00271  -0.0961  0.0000  0.0008  -0.8405   0.0000   0.4232
   1.500   0.6008   0.01221   0.00286  -0.0958  0.0000  0.0008  -0.8872   0.0000   0.4063
   2.000   0.6547   0.01240   0.00304  -0.0955  0.0000  0.0008  -0.9369   0.0000   0.3922
   2.500   0.7082   0.01261   0.00327  -0.0952  0.0008  0.0031  -0.9892   0.0000   0.3802
   3.000   0.7613   0.01286   0.00352  -0.0948  0.0008  0.0031  -1.0448   0.0000   0.3697
   3.500   0.8139   0.01313   0.00379  -0.0943  0.0008  0.0031  -1.1047   0.0000   0.3606
   4.000   0.8658   0.01344   0.00411  -0.0937  0.0008  0.0031  -1.1708   0.0000   0.3524
   4.500   0.9171   0.01378   0.00449  -0.0930  0.0031  0.0069  -1.2548   0.0000   0.3451
   5.000   0.9676   0.01416   0.00489  -0.0922  0.0031  0.0069  -1.3964   0.0000   0.3384
   5.500   1.0173   0.01457   0.00532  -0.0913  0.0031  0.0069  -1.5755   0.0000   0.3323
   6.000   1.0658   0.01502   0.00585  -0.0902  0.0069  0.0121  -1.7716   0.0000   0.3266
   6.500   1.1132   0.01552   0.00637  -0.0889  0.0069  0.0121  -2.0013   0.0000   0.3212
   7.000   1.1592   0.01607   0.00696  -0.0874  0.0069  0.0121  -2.2467   0.0000   0.3161
   7.500   1.2034   0.01666   0.00760  -0.0857  0.0069  0.0121  -2.4964   0.0000   0.3112
   8.000   1.2453   0.01731   0.00833  -0.0836  0.0121  0.0188  -2.7790   0.0000   0.3065
   8.500   1.2803   0.01800   0.00908  -0.0801  0.0121  0.0188  -3.0665   0.0000   0.3013
   9.000   1.3166   0.01883   0.00999  -0.0772  0.0121  0.0188  -3.3675   0.0000   0.2966
   9.500   1.3515   0.01979   0.01102  -0.0743  0.0121  0.0188  -3.6730   0.0000   0.2922
  10.000   1.3844   0.02087   0.01221  -0.0713  0.0188  0.0269  -3.9756   0.0000   0.2879
  10.500   1.4148   0.02213   0.01356  -0.0681  0.0188  0.0269  -4.2809   0.0000   0.2837
  11.000   1.4426   0.02358   0.01511  -0.0649  0.0188  0.0269  -4.5844   0.0000   0.2797
  11.500   1.4684   0.02527   0.01691  -0.0618  0.0188  0.0269  -4.9271   0.0000   0.2760
  12.000   1.4914   0.02723   0.01898  -0.0587  0.0188  0.0269  -5.2776   0.0000   0.2723
  12.500   1.5122   0.02951   0.02140  -0.0558  0.0269  0.0364  -5.6207   0.0000   0.2690
  13.000   1.5302   0.03217   0.02418  -0.0531  0.0269  0.0364  -5.9611   0.0000   0.2658
  13.500   1.5450   0.03524   0.02740  -0.0506  0.0269  0.0364  -6.2905   0.0000   0.2629
  14.000   1.5572   0.03877   0.03108  -0.0486  0.0269  0.0364  -6.6111   0.0000   0.2603
  14.500   1.5666   0.04282   0.03528  -0.0469  0.0269  0.0364  -6.9191   0.0000   0.2580
  15.000   1.5720   0.04748   0.04012  -0.0456  0.0364  0.0472  -7.2104   0.0000   0.2560
  15.500   1.5750   0.05274   0.04555  -0.0448  0.0364  0.0472  -7.4843   0.0000   0.2543
  16.000   1.5756   0.05854   0.05153  -0.0445  0.0364  0.0472  -7.7434   0.0000   0.2530
  16.500   1.5733   0.06490   0.05806  -0.0446  0.0364  0.0472  -7.9824   0.0000   0.2519
  17.000   1.5668   0.07199   0.06534  -0.0452  0.0364  0.0472  -8.1909   0.0000   0.2512
  17.500   1.5576   0.07975   0.07329  -0.0464  0.0364  0.0472  -8.3767   0.0000   0.2509
  18.000   1.5463   0.08798   0.08171  -0.0480  0.0364  0.0472  -8.5428   0.0000   0.2510
  18.500   1.5329   0.09666   0.09061  -0.0500  0.0472  0.0592  -8.6825   0.0000   0.2514
  19.000   1.5172   0.10578   0.09992  -0.0525  0.0472  0.0592  -8.8014   0.0000   0.2521
  19.500   1.5008   0.11535   0.10969  -0.0556  0.0472  0.0592  -8.9015   0.0000   0.2533
  20.000   1.4832   0.12534   0.11988  -0.0593  0.0472  0.0592  -8.9784   0.0000   0.2550


