XFLR5 v6.09.05 beta

 Calculated polar for: NACA 6412

 1 1 Reynolds number fixed          Mach number fixed         

 xtrf =   1.000 (top)        1.000 (bottom)
 Mach =   0.000     Re =     0.600 e 6     Ncrit =   0.000

  alpha     CL        CD       CDp       Cm    Top Xtr Bot Xtr   Cpmin    Chinge    XCp    
 ------- -------- --------- --------- -------- ------- ------- -------- --------- ---------
 -10.000  -0.4362   0.02498   0.01785  -0.1399  0.0269  0.0188  -8.0208   0.0000  -0.0898
  -9.500  -0.3894   0.02230   0.01476  -0.1410  0.0269  0.0188  -7.5341   0.0000  -0.1319
  -9.000  -0.3395   0.02049   0.01263  -0.1415  0.0269  0.0188  -7.0133   0.0000  -0.1876
  -8.500  -0.2881   0.01912   0.01095  -0.1418  0.0188  0.0121  -6.4882   0.0000  -0.2648
  -8.000  -0.2355   0.01803   0.00961  -0.1420  0.0188  0.0121  -5.9626   0.0000  -0.3782
  -7.500  -0.1822   0.01713   0.00849  -0.1421  0.0188  0.0121  -5.4454   0.0000  -0.5599
  -7.000  -0.1283   0.01640   0.00755  -0.1422  0.0188  0.0121  -4.9402   0.0000  -0.8965
  -6.500  -0.0741   0.01579   0.00674  -0.1422  0.0121  0.0069  -4.4460   0.0000  -1.7306
  -6.000  -0.0195   0.01529   0.00607  -0.1422  0.0121  0.0069  -3.9732   0.0000  -7.2396
  -5.500   0.0352   0.01488   0.00551  -0.1422  0.0121  0.0069  -3.5226   0.0000   4.3970
  -5.000   0.0900   0.01454   0.00505  -0.1421  0.0121  0.0069  -3.1540   0.0000   1.8658
  -4.500   0.1448   0.01425   0.00461  -0.1421  0.0069  0.0031  -2.7974   0.0000   1.2508
  -4.000   0.1997   0.01404   0.00430  -0.1420  0.0069  0.0031  -2.4573   0.0000   0.9736
  -3.500   0.2544   0.01389   0.00405  -0.1418  0.0069  0.0031  -2.1323   0.0000   0.8158
  -3.000   0.3091   0.01376   0.00382  -0.1417  0.0031  0.0008  -1.8314   0.0000   0.7140
  -2.500   0.3636   0.01370   0.00369  -0.1415  0.0031  0.0008  -1.5365   0.0000   0.6429
  -2.000   0.4179   0.01369   0.00361  -0.1413  0.0031  0.0008  -1.2569   0.0000   0.5903
  -1.500   0.4720   0.01372   0.00358  -0.1410  0.0031  0.0008  -1.0392   0.0000   0.5499
  -1.000   0.5258   0.01376   0.00357  -0.1407  0.0008  0.0000  -0.8844   0.0000   0.5177
  -0.500   0.5792   0.01386   0.00362  -0.1404  0.0008  0.0000  -0.9243   0.0000   0.4916
   0.000   0.6322   0.01400   0.00373  -0.1400  0.0008  0.0000  -0.9662   0.0000   0.4698
   0.500   0.6848   0.01417   0.00387  -0.1395  0.0008  0.0000  -1.0089   0.0000   0.4514
   1.000   0.7369   0.01437   0.00405  -0.1389  0.0000  0.0008  -1.0513   0.0000   0.4356
   1.500   0.7883   0.01461   0.00427  -0.1382  0.0000  0.0008  -1.0956   0.0000   0.4218
   2.000   0.8391   0.01488   0.00453  -0.1375  0.0000  0.0008  -1.1408   0.0000   0.4096
   2.500   0.8890   0.01519   0.00483  -0.1366  0.0000  0.0008  -1.1856   0.0000   0.3988
   3.000   0.9380   0.01554   0.00520  -0.1355  0.0008  0.0031  -1.2331   0.0000   0.3890
   3.500   0.9858   0.01592   0.00559  -0.1343  0.0008  0.0031  -1.2803   0.0000   0.3801
   4.000   1.0323   0.01635   0.00602  -0.1328  0.0008  0.0031  -1.3292   0.0000   0.3720
   4.500   1.0764   0.01681   0.00650  -0.1310  0.0008  0.0031  -1.3778   0.0000   0.3643
   5.000   1.1159   0.01732   0.00708  -0.1282  0.0031  0.0069  -1.4260   0.0000   0.3569
   5.500   1.1569   0.01792   0.00772  -0.1259  0.0031  0.0069  -1.4768   0.0000   0.3501
   6.000   1.1973   0.01862   0.00845  -0.1236  0.0031  0.0069  -1.5311   0.0000   0.3439
   6.500   1.2360   0.01940   0.00927  -0.1212  0.0031  0.0069  -1.5878   0.0000   0.3380
   7.000   1.2726   0.02030   0.01028  -0.1185  0.0069  0.0121  -1.7351   0.0000   0.3323
   7.500   1.3077   0.02131   0.01135  -0.1158  0.0069  0.0121  -1.9227   0.0000   0.3270
   8.000   1.3407   0.02245   0.01257  -0.1129  0.0069  0.0121  -2.1236   0.0000   0.3219
   8.500   1.3717   0.02378   0.01397  -0.1100  0.0069  0.0121  -2.3305   0.0000   0.3170
   9.000   1.4004   0.02531   0.01563  -0.1070  0.0121  0.0188  -2.5760   0.0000   0.3124
   9.500   1.4271   0.02704   0.01746  -0.1040  0.0121  0.0188  -2.8192   0.0000   0.3080
  10.000   1.4516   0.02903   0.01956  -0.1010  0.0121  0.0188  -3.0605   0.0000   0.3039
  10.500   1.4735   0.03133   0.02197  -0.0981  0.0121  0.0188  -3.3000   0.0000   0.2999
  11.000   1.4926   0.03395   0.02471  -0.0952  0.0121  0.0188  -3.5363   0.0000   0.2962
  11.500   1.5088   0.03699   0.02793  -0.0925  0.0188  0.0269  -3.7888   0.0000   0.2928
  12.000   1.5230   0.04040   0.03149  -0.0900  0.0188  0.0269  -4.0598   0.0000   0.2896
  12.500   1.5345   0.04423   0.03547  -0.0878  0.0188  0.0269  -4.3242   0.0000   0.2867
  13.000   1.5438   0.04851   0.03990  -0.0859  0.0188  0.0269  -4.5829   0.0000   0.2841
  13.500   1.5510   0.05324   0.04480  -0.0843  0.0188  0.0269  -4.8358   0.0000   0.2817
  14.000   1.5562   0.05840   0.05015  -0.0830  0.0269  0.0364  -5.0783   0.0000   0.2797
  14.500   1.5588   0.06398   0.05590  -0.0820  0.0269  0.0364  -5.3131   0.0000   0.2778
  15.000   1.5593   0.06995   0.06205  -0.0813  0.0269  0.0364  -5.5389   0.0000   0.2762
  15.500   1.5584   0.07630   0.06858  -0.0810  0.0269  0.0364  -5.7591   0.0000   0.2749
  16.000   1.5562   0.08295   0.07541  -0.0809  0.0269  0.0364  -5.9724   0.0000   0.2738
  16.500   1.5529   0.08983   0.08247  -0.0812  0.0269  0.0364  -6.1799   0.0000   0.2729
  17.000   1.5490   0.09674   0.08956  -0.0816  0.0269  0.0364  -6.3836   0.0000   0.2721
  17.500   1.5446   0.10386   0.09688  -0.0824  0.0364  0.0472  -6.5847   0.0000   0.2716
  18.000   1.5387   0.11136   0.10457  -0.0836  0.0364  0.0472  -6.7721   0.0000   0.2713
  18.500   1.5334   0.11885   0.11224  -0.0851  0.0364  0.0472  -6.9598   0.0000   0.2712
  19.000   1.5297   0.12611   0.11968  -0.0868  0.0364  0.0472  -7.1552   0.0000   0.2712
  19.500   1.5230   0.13396   0.12772  -0.0891  0.0364  0.0472  -7.3244   0.0000   0.2717
  20.000   1.5165   0.14177   0.13572  -0.0917  0.0364  0.0472  -7.4893   0.0000   0.2724


