XFLR5 v6.09.05 beta

 Calculated polar for: NACA 64A-216

 1 1 Reynolds number fixed          Mach number fixed         

 xtrf =   1.000 (top)        1.000 (bottom)
 Mach =   0.000     Re =     1.000 e 6     Ncrit =   0.000

  alpha     CL        CD       CDp       Cm    Top Xtr Bot Xtr   Cpmin    Chinge    XCp    
 ------- -------- --------- --------- -------- ------- ------- -------- --------- ---------
 -10.000  -0.6770   0.01716   0.00860  -0.0837  0.0236  0.0096  -4.4165   0.0000   0.1127
  -9.500  -0.6492   0.01641   0.00778  -0.0796  0.0236  0.0096  -4.0783   0.0000   0.1143
  -9.000  -0.6216   0.01575   0.00705  -0.0751  0.0236  0.0096  -3.7441   0.0000   0.1167
  -8.500  -0.5935   0.01520   0.00644  -0.0703  0.0236  0.0096  -3.4235   0.0000   0.1195
  -8.000  -0.5676   0.01479   0.00598  -0.0649  0.0236  0.0096  -3.1218   0.0000   0.1242
  -7.500  -0.5379   0.01443   0.00556  -0.0601  0.0236  0.0096  -2.8775   0.0000   0.1273
  -7.000  -0.5015   0.01409   0.00522  -0.0566  0.0236  0.0096  -2.6453   0.0000   0.1264
  -6.500  -0.4640   0.01374   0.00470  -0.0534  0.0096  0.0018  -2.4069   0.0000   0.1248
  -6.000  -0.4240   0.01344   0.00437  -0.0505  0.0096  0.0018  -2.1805   0.0000   0.1209
  -5.500  -0.3826   0.01317   0.00406  -0.0479  0.0096  0.0018  -1.9584   0.0000   0.1150
  -5.000  -0.3404   0.01292   0.00376  -0.0454  0.0096  0.0018  -1.7415   0.0000   0.1069
  -4.500  -0.2971   0.01270   0.00351  -0.0431  0.0096  0.0018  -1.5292   0.0000   0.0951
  -4.000  -0.2527   0.01252   0.00330  -0.0410  0.0096  0.0018  -1.3239   0.0000   0.0778
  -3.500  -0.2076   0.01237   0.00313  -0.0391  0.0096  0.0018  -1.1265   0.0000   0.0516
  -3.000  -0.1614   0.01228   0.00303  -0.0373  0.0096  0.0018  -0.9398   0.0000   0.0081
  -2.500  -0.1159   0.01217   0.00284  -0.0354  0.0018  0.0000  -0.7580   0.0000  -0.0675
  -2.000  -0.0704   0.01207   0.00273  -0.0334  0.0018  0.0000  -0.5875   0.0000  -0.2404
  -1.500  -0.0244   0.01202   0.00266  -0.0316  0.0018  0.0000  -0.5165   0.0000  -1.0755
  -1.000   0.0216   0.01199   0.00262  -0.0298  0.0018  0.0000  -0.5414   0.0000   1.6512
  -0.500   0.0674   0.01198   0.00260  -0.0279  0.0018  0.0000  -0.5663   0.0000   0.6663
   0.000   0.1129   0.01199   0.00261  -0.0260  0.0018  0.0000  -0.5909   0.0000   0.4787
   0.500   0.1575   0.01202   0.00263  -0.0238  0.0000  0.0018  -0.6150   0.0000   0.3983
   1.000   0.2016   0.01207   0.00269  -0.0216  0.0000  0.0018  -0.6387   0.0000   0.3532
   1.500   0.2451   0.01215   0.00276  -0.0193  0.0000  0.0018  -0.6621   0.0000   0.3240
   2.000   0.2875   0.01224   0.00286  -0.0167  0.0000  0.0018  -0.6848   0.0000   0.3029
   2.500   0.3278   0.01236   0.00298  -0.0137  0.0000  0.0018  -0.7063   0.0000   0.2861
   3.000   0.3627   0.01247   0.00310  -0.0096  0.0000  0.0018  -0.7305   0.0000   0.2702
   3.500   0.3974   0.01262   0.00332  -0.0054  0.0018  0.0098  -0.7970   0.0000   0.2570
   4.000   0.4342   0.01280   0.00351  -0.0018  0.0018  0.0098  -0.9026   0.0000   0.2471
   4.500   0.4704   0.01308   0.00380   0.0018  0.0018  0.0098  -1.0231   0.0000   0.2385
   5.000   0.5057   0.01340   0.00413   0.0056  0.0018  0.0098  -1.1882   0.0000   0.2309
   5.500   0.5405   0.01376   0.00453   0.0093  0.0018  0.0098  -1.3589   0.0000   0.2244
   6.000   0.5741   0.01422   0.00502   0.0130  0.0018  0.0098  -1.5346   0.0000   0.2183
   6.500   0.6087   0.01470   0.00553   0.0164  0.0018  0.0098  -1.7162   0.0000   0.2135
   7.000   0.6444   0.01523   0.00610   0.0194  0.0018  0.0098  -1.9400   0.0000   0.2098
   7.500   0.6796   0.01584   0.00674   0.0223  0.0018  0.0098  -2.2218   0.0000   0.2067
   8.000   0.7159   0.01653   0.00760   0.0247  0.0098  0.0245  -2.5095   0.0000   0.2044
   8.500   0.7529   0.01728   0.00838   0.0267  0.0098  0.0245  -2.8198   0.0000   0.2029
   9.000   0.7905   0.01815   0.00931   0.0283  0.0098  0.0245  -3.1427   0.0000   0.2019
   9.500   0.8270   0.01916   0.01038   0.0298  0.0098  0.0245  -3.4737   0.0000   0.2011
  10.000   0.8654   0.02024   0.01154   0.0307  0.0098  0.0245  -3.8271   0.0000   0.2010
  10.500   0.9021   0.02154   0.01293   0.0313  0.0098  0.0245  -4.1817   0.0000   0.2009
  11.000   0.9400   0.02291   0.01437   0.0316  0.0098  0.0245  -4.5524   0.0000   0.2013
  11.500   0.9750   0.02452   0.01607   0.0318  0.0098  0.0245  -4.9206   0.0000   0.2015
  12.000   1.0103   0.02619   0.01782   0.0319  0.0098  0.0245  -5.3013   0.0000   0.2018
  12.500   1.0428   0.02824   0.02006   0.0317  0.0245  0.0446  -5.6927   0.0000   0.2021
  13.000   1.0761   0.03027   0.02219   0.0314  0.0245  0.0446  -6.0827   0.0000   0.2025
  13.500   1.1073   0.03276   0.02481   0.0305  0.0245  0.0446  -6.4707   0.0000   0.2032
  14.000   1.1363   0.03542   0.02760   0.0297  0.0245  0.0446  -6.8552   0.0000   0.2036
  14.500   1.1608   0.03819   0.03050   0.0295  0.0245  0.0446  -7.2232   0.0000   0.2034
  15.000   1.1796   0.04164   0.03409   0.0291  0.0245  0.0446  -7.5637   0.0000   0.2031
  15.500   1.1994   0.04503   0.03762   0.0288  0.0245  0.0446  -7.9157   0.0000   0.2027
  16.000   1.2109   0.04946   0.04220   0.0282  0.0245  0.0446  -8.2172   0.0000   0.2023
  16.500   1.2248   0.05355   0.04643   0.0277  0.0245  0.0446  -8.5386   0.0000   0.2019
  17.000   1.2287   0.05900   0.05214   0.0266  0.0446  0.0695  -8.7782   0.0000   0.2017
  17.500   1.2373   0.06384   0.05711   0.0256  0.0446  0.0695  -9.0711   0.0000   0.2015
  18.000   1.2322   0.07036   0.06381   0.0239  0.0446  0.0695  -9.2509   0.0000   0.2016
  18.500   1.2340   0.07621   0.06983   0.0222  0.0446  0.0695  -9.4805   0.0000   0.2017
  19.000   1.2244   0.08419   0.07802   0.0193  0.0446  0.0695  -9.6120   0.0000   0.2026
  19.500   1.2179   0.09188   0.08590   0.0163  0.0446  0.0695  -9.7589   0.0000   0.2037
  20.000   1.2037   0.10106   0.09528   0.0122  0.0446  0.0695  -9.8237   0.0000   0.2057


