XFLR5 v6.09.05 beta

 Calculated polar for: NACA 64A-716

 1 1 Reynolds number fixed          Mach number fixed         

 xtrf =   1.000 (top)        1.000 (bottom)
 Mach =   0.000     Re =     1.000 e 6     Ncrit =   0.000

  alpha     CL        CD       CDp       Cm    Top Xtr Bot Xtr   Cpmin    Chinge    XCp    
 ------- -------- --------- --------- -------- ------- ------- -------- --------- ---------
 -10.000  -0.4826   0.01688   0.00879  -0.1332  0.0400  0.0216  -5.5468   0.0000  -0.0446
  -9.500  -0.4447   0.01632   0.00803  -0.1304  0.0216  0.0088  -5.1236   0.0000  -0.0617
  -9.000  -0.4058   0.01577   0.00741  -0.1277  0.0216  0.0088  -4.7196   0.0000  -0.0831
  -8.500  -0.3661   0.01528   0.00683  -0.1250  0.0216  0.0088  -4.3245   0.0000  -0.1103
  -8.000  -0.3257   0.01483   0.00629  -0.1224  0.0216  0.0088  -3.9373   0.0000  -0.1451
  -7.500  -0.2845   0.01445   0.00583  -0.1198  0.0216  0.0088  -3.5731   0.0000  -0.1914
  -7.000  -0.2437   0.01408   0.00539  -0.1171  0.0216  0.0088  -3.3102   0.0000  -0.2520
  -6.500  -0.2030   0.01375   0.00499  -0.1143  0.0216  0.0088  -3.0540   0.0000  -0.3365
  -6.000  -0.1618   0.01351   0.00472  -0.1116  0.0216  0.0088  -2.8037   0.0000  -0.4657
  -5.500  -0.1259   0.01320   0.00426  -0.1077  0.0088  0.0017  -2.5689   0.0000  -0.6354
  -5.000  -0.0889   0.01297   0.00398  -0.1039  0.0088  0.0017  -2.3417   0.0000  -0.9569
  -4.500  -0.0505   0.01278   0.00374  -0.1005  0.0088  0.0017  -2.1180   0.0000  -1.8010
  -4.000  -0.0120   0.01259   0.00350  -0.0971  0.0088  0.0017  -1.9018   0.0000  -8.0319
  -3.500   0.0277   0.01250   0.00338  -0.0940  0.0088  0.0017  -1.6892   0.0000   3.7243
  -3.000   0.0664   0.01248   0.00331  -0.0906  0.0088  0.0017  -1.4863   0.0000   1.6416
  -2.500   0.1056   0.01251   0.00331  -0.0874  0.0088  0.0017  -1.2906   0.0000   1.0911
  -2.000   0.1449   0.01261   0.00340  -0.0842  0.0088  0.0017  -1.1074   0.0000   0.8384
  -1.500   0.1834   0.01270   0.00339  -0.0809  0.0017  0.0000  -0.9289   0.0000   0.6947
  -1.000   0.2219   0.01282   0.00349  -0.0776  0.0017  0.0000  -0.7561   0.0000   0.6011
  -0.500   0.2609   0.01296   0.00362  -0.0745  0.0017  0.0000  -0.7734   0.0000   0.5352
   0.000   0.2992   0.01314   0.00379  -0.0713  0.0017  0.0000  -0.7969   0.0000   0.4866
   0.500   0.3388   0.01335   0.00398  -0.0685  0.0017  0.0000  -0.8208   0.0000   0.4492
   1.000   0.3790   0.01359   0.00421  -0.0658  0.0017  0.0000  -0.8448   0.0000   0.4199
   1.500   0.4175   0.01390   0.00451  -0.0629  0.0000  0.0026  -0.8675   0.0000   0.3961
   2.000   0.4579   0.01421   0.00482  -0.0604  0.0000  0.0026  -0.8911   0.0000   0.3768
   2.500   0.4993   0.01457   0.00517  -0.0583  0.0000  0.0026  -0.9150   0.0000   0.3608
   3.000   0.5409   0.01497   0.00557  -0.0563  0.0000  0.0026  -0.9387   0.0000   0.3475
   3.500   0.5812   0.01546   0.00607  -0.0542  0.0000  0.0026  -0.9611   0.0000   0.3361
   4.000   0.6234   0.01597   0.00658  -0.0526  0.0000  0.0026  -0.9843   0.0000   0.3267
   4.500   0.6664   0.01652   0.00713  -0.0513  0.0000  0.0026  -1.0111   0.0000   0.3186
   5.000   0.7095   0.01714   0.00785  -0.0502  0.0026  0.0113  -1.0466   0.0000   0.3118
   5.500   0.7516   0.01789   0.00862  -0.0491  0.0026  0.0113  -1.0903   0.0000   0.3058
   6.000   0.7960   0.01863   0.00938  -0.0485  0.0026  0.0113  -1.1450   0.0000   0.3008
   6.500   0.8409   0.01943   0.01020  -0.0482  0.0026  0.0113  -1.2376   0.0000   0.2965
   7.000   0.8843   0.02036   0.01117  -0.0477  0.0026  0.0113  -1.3753   0.0000   0.2925
   7.500   0.9234   0.02154   0.01240  -0.0470  0.0026  0.0113  -1.5116   0.0000   0.2887
   8.000   0.9653   0.02271   0.01362  -0.0468  0.0026  0.0113  -1.6884   0.0000   0.2856
   8.500   1.0072   0.02395   0.01491  -0.0467  0.0026  0.0113  -1.9135   0.0000   0.2827
   9.000   1.0452   0.02557   0.01674  -0.0465  0.0113  0.0269  -2.1756   0.0000   0.2800
   9.500   1.0834   0.02722   0.01840  -0.0464  0.0113  0.0269  -2.4609   0.0000   0.2776
  10.000   1.1212   0.02889   0.02015  -0.0463  0.0113  0.0269  -2.7553   0.0000   0.2752
  10.500   1.1582   0.03083   0.02217  -0.0466  0.0113  0.0269  -3.0575   0.0000   0.2732
  11.000   1.1888   0.03318   0.02462  -0.0463  0.0113  0.0269  -3.3495   0.0000   0.2711
  11.500   1.2199   0.03539   0.02693  -0.0459  0.0113  0.0269  -3.6558   0.0000   0.2688
  12.000   1.2474   0.03799   0.02962  -0.0453  0.0113  0.0269  -3.9536   0.0000   0.2665
  12.500   1.2706   0.04099   0.03273  -0.0445  0.0113  0.0269  -4.2419   0.0000   0.2643
  13.000   1.2962   0.04372   0.03554  -0.0438  0.0113  0.0269  -4.6460   0.0000   0.2620
  13.500   1.3160   0.04706   0.03899  -0.0430  0.0113  0.0269  -5.0347   0.0000   0.2599
  14.000   1.3325   0.05076   0.04291  -0.0421  0.0269  0.0478  -5.3984   0.0000   0.2578
  14.500   1.3545   0.05380   0.04606  -0.0415  0.0269  0.0478  -5.8322   0.0000   0.2557
  15.000   1.3667   0.05793   0.05033  -0.0408  0.0269  0.0478  -6.2046   0.0000   0.2538
  15.500   1.3778   0.06207   0.05461  -0.0402  0.0269  0.0478  -6.5784   0.0000   0.2520
  16.000   1.3911   0.06586   0.05852  -0.0395  0.0269  0.0478  -6.9766   0.0000   0.2501
  16.500   1.3950   0.07122   0.06406  -0.0394  0.0269  0.0478  -7.3161   0.0000   0.2487
  17.000   1.4037   0.07600   0.06898  -0.0393  0.0269  0.0478  -7.6942   0.0000   0.2473
  17.500   1.4139   0.08065   0.07377  -0.0394  0.0269  0.0478  -8.0878   0.0000   0.2460
  18.000   1.4099   0.08742   0.08072  -0.0402  0.0269  0.0478  -8.3711   0.0000   0.2454
  18.500   1.4159   0.09267   0.08611  -0.0409  0.0269  0.0478  -8.7390   0.0000   0.2444
  19.000   1.4224   0.09784   0.09151  -0.0418  0.0478  0.0732  -9.1335   0.0000   0.2437
  19.500   1.4120   0.10553   0.09939  -0.0437  0.0478  0.0732  -9.3517   0.0000   0.2439
  20.000   1.4157   0.11103   0.10501  -0.0453  0.0478  0.0732  -9.6926   0.0000   0.2436


