XFLR5 v6.09.05 beta

 Calculated polar for: NACA 4412

 1 1 Reynolds number fixed          Mach number fixed         

 xtrf =   1.000 (top)        1.000 (bottom)
 Mach =   0.000     Re =     0.600 e 6     Ncrit =   0.000

  alpha     CL        CD       CDp       Cm    Top Xtr Bot Xtr   Cpmin    Chinge    XCp    
 ------- -------- --------- --------- -------- ------- ------- -------- --------- ---------
  -5.000  -0.1199   0.01390   0.00419  -0.0966  0.0069  0.0031  -2.6800   0.0000  -0.5779
  -4.500  -0.0650   0.01363   0.00384  -0.0965  0.0069  0.0031  -2.3563   0.0000  -1.2691
  -4.000  -0.0100   0.01342   0.00356  -0.0963  0.0069  0.0031  -2.0466   0.0000  -9.5613
  -3.500   0.0451   0.01325   0.00331  -0.0962  0.0069  0.0031  -1.7514   0.0000   2.4224
  -3.000   0.1001   0.01310   0.00308  -0.0960  0.0031  0.0008  -1.4771   0.0000   1.2231
  -2.500   0.1552   0.01301   0.00294  -0.0959  0.0031  0.0008  -1.2494   0.0000   0.8748
  -2.000   0.2103   0.01296   0.00284  -0.0958  0.0031  0.0008  -1.0353   0.0000   0.7090
  -1.500   0.2652   0.01294   0.00279  -0.0956  0.0031  0.0008  -0.8338   0.0000   0.6121
  -1.000   0.3200   0.01295   0.00273  -0.0954  0.0008  0.0000  -0.6679   0.0000   0.5484
  -0.500   0.3747   0.01300   0.00275  -0.0952  0.0008  0.0000  -0.7053   0.0000   0.5034
   0.000   0.4292   0.01308   0.00281  -0.0950  0.0008  0.0000  -0.7468   0.0000   0.4698
   0.500   0.4834   0.01319   0.00290  -0.0947  0.0000  0.0008  -0.7892   0.0000   0.4438
   1.000   0.5373   0.01333   0.00303  -0.0944  0.0000  0.0008  -0.8341   0.0000   0.4230
   1.500   0.5910   0.01350   0.00320  -0.0940  0.0000  0.0008  -0.8799   0.0000   0.4059
   2.000   0.6442   0.01371   0.00340  -0.0936  0.0000  0.0008  -0.9292   0.0000   0.3916
   2.500   0.6970   0.01395   0.00366  -0.0931  0.0008  0.0031  -0.9805   0.0000   0.3794
   3.000   0.7493   0.01422   0.00394  -0.0926  0.0008  0.0031  -1.0349   0.0000   0.3688
   3.500   0.8010   0.01453   0.00425  -0.0919  0.0008  0.0031  -1.0934   0.0000   0.3595
   4.000   0.8520   0.01487   0.00461  -0.0912  0.0008  0.0031  -1.1579   0.0000   0.3513
   4.500   0.9022   0.01526   0.00505  -0.0904  0.0031  0.0069  -1.2405   0.0000   0.3438
   5.000   0.9515   0.01567   0.00550  -0.0894  0.0031  0.0069  -1.3717   0.0000   0.3370
   5.500   0.9999   0.01613   0.00600  -0.0883  0.0031  0.0069  -1.5370   0.0000   0.3308
   6.000   1.0470   0.01664   0.00654  -0.0870  0.0031  0.0069  -1.7327   0.0000   0.3250
   6.500   1.0924   0.01722   0.00721  -0.0854  0.0069  0.0121  -1.9467   0.0000   0.3195
   7.000   1.1363   0.01783   0.00788  -0.0836  0.0069  0.0121  -2.1822   0.0000   0.3142
   7.500   1.1774   0.01850   0.00862  -0.0814  0.0069  0.0121  -2.4195   0.0000   0.3091
   8.500   1.2490   0.02012   0.01042  -0.0752  0.0121  0.0188  -2.9558   0.0000   0.2989
   9.000   1.2838   0.02113   0.01152  -0.0723  0.0121  0.0188  -3.2450   0.0000   0.2943
   9.500   1.3164   0.02228   0.01277  -0.0693  0.0121  0.0188  -3.5355   0.0000   0.2898
  10.000   1.3468   0.02359   0.01418  -0.0663  0.0121  0.0188  -3.8268   0.0000   0.2856
  10.500   1.3742   0.02514   0.01588  -0.0631  0.0188  0.0269  -4.1159   0.0000   0.2815
  11.000   1.3997   0.02692   0.01779  -0.0601  0.0188  0.0269  -4.4049   0.0000   0.2777
  11.500   1.4223   0.02899   0.02000  -0.0571  0.0188  0.0269  -4.6941   0.0000   0.2740
  12.000   1.4427   0.03140   0.02254  -0.0543  0.0188  0.0269  -5.0216   0.0000   0.2706
  12.500   1.4605   0.03416   0.02548  -0.0518  0.0269  0.0364  -5.3380   0.0000   0.2675
  13.000   1.4751   0.03737   0.02884  -0.0495  0.0269  0.0364  -5.6507   0.0000   0.2647
  13.500   1.4869   0.04108   0.03272  -0.0477  0.0269  0.0364  -5.9510   0.0000   0.2621
  14.000   1.4955   0.04531   0.03712  -0.0462  0.0269  0.0364  -6.2379   0.0000   0.2599
  14.500   1.5013   0.05006   0.04206  -0.0450  0.0269  0.0364  -6.5115   0.0000   0.2580
  15.000   1.5049   0.05537   0.04755  -0.0444  0.0269  0.0364  -6.7736   0.0000   0.2564
  15.500   1.5055   0.06131   0.05372  -0.0444  0.0364  0.0472  -7.0192   0.0000   0.2553
  16.000   1.5026   0.06785   0.06045  -0.0447  0.0364  0.0472  -7.2400   0.0000   0.2544
  16.500   1.4976   0.07492   0.06772  -0.0454  0.0364  0.0472  -7.4442   0.0000   0.2539
  17.000   1.4906   0.08251   0.07552  -0.0467  0.0364  0.0472  -7.6314   0.0000   0.2537
  17.500   1.4813   0.09059   0.08381  -0.0483  0.0364  0.0472  -7.7981   0.0000   0.2538
  18.000   1.4696   0.09911   0.09254  -0.0504  0.0364  0.0472  -7.9419   0.0000   0.2543
  18.500   1.4564   0.10810   0.10175  -0.0530  0.0364  0.0472  -8.0650   0.0000   0.2552
  19.000   1.4423   0.11752   0.11138  -0.0562  0.0364  0.0472  -8.1701   0.0000   0.2566
  19.500   1.4271   0.12734   0.12141  -0.0600  0.0364  0.0472  -8.2534   0.0000   0.2584
  20.000   1.4109   0.13758   0.13190  -0.0644  0.0472  0.0592  -8.3082   0.0000   0.2608


